192
# CELL(abcABC):   23.43997    23.43997    23.43997    90.00000    90.00000    90.00000  Step:      241020  Bead:       0 x_centroid{atomic_unit}  cell{atomic_unit}
       O -4.15021e+01  5.71064e+01 -6.40190e+00
       H -4.04918e+01  5.73703e+01 -4.91449e+00
       H -4.18963e+01  5.52812e+01 -6.51911e+00
       O  4.50094e+01  9.68803e+01 -6.43398e+01
       H  4.48187e+01  9.53978e+01 -6.33254e+01
       H  4.35889e+01  9.78579e+01 -6.41661e+01
       O  3.43842e+01  1.16719e+01 -6.50451e+01
       H  3.61036e+01  1.25610e+01 -6.49022e+01
       H  3.37191e+01  1.19749e+01 -6.33970e+01
       O  5.22676e+01 -4.16971e+01 -7.69966e+01
       H  5.40110e+01 -4.20420e+01 -7.64738e+01
       H  5.10875e+01 -4.29461e+01 -7.63042e+01
       O  5.64300e+01  1.43137e+02  4.77694e+01
       H  5.47797e+01  1.42942e+02  4.69423e+01
       H  5.73584e+01  1.44343e+02  4.67049e+01
       O -4.12042e+01  3.16100e+01  1.58643e+00
       H -4.03142e+01  3.21891e+01  3.10528e+00
       H -4.20838e+01  3.00865e+01  2.09911e+00
       O  1.42182e+01 -1.68564e+01  1.03571e+01
       H  1.48158e+01 -1.62771e+01  8.82402e+00
       H  1.23655e+01 -1.72201e+01  1.02005e+01
       O  8.49196e+00  1.45611e+01  4.26247e+01
       H  1.01420e+01  1.48569e+01  4.17574e+01
       H  8.33683e+00  1.60277e+01  4.38786e+01
       O  6.88377e+01 -3.69329e+01  7.49803e+01
       H  6.87168e+01 -3.82993e+01  7.61816e+01
       H  7.05542e+01 -3.69793e+01  7.43229e+01
       O -5.59471e+01 -9.49151e+01 -4.06421e+01
       H -5.47537e+01 -9.61670e+01 -4.01152e+01
       H -5.53276e+01 -9.44346e+01 -4.22805e+01
       O -6.45457e+01  6.52605e+01  1.69201e+01
       H -6.62166e+01  6.52061e+01  1.62253e+01
       H -6.43399e+01  6.35191e+01  1.73183e+01
       O -9.36150e+01  5.86528e+01  6.57591e+01
       H -9.20657e+01  5.82812e+01  6.48386e+01
       H -9.42727e+01  5.69609e+01  6.60000e+01
       O  6.22327e-01 -9.36278e+01 -3.24814e+01
       H  8.05665e-01 -9.31646e+01 -3.07703e+01
       H  1.33653e+00 -9.21866e+01 -3.34559e+01
       O  9.35007e+01 -7.24486e+01  1.95650e+01
       H  9.44640e+01 -7.39135e+01  1.99938e+01
       H  9.45119e+01 -7.08906e+01  1.96959e+01
       O  1.02559e+01  3.80908e+00  4.11998e+01
       H  9.72155e+00  2.32434e+00  4.21080e+01
       H  1.04275e+01  3.21810e+00  3.94849e+01
       O -6.05584e+01 -5.11956e+01 -3.39451e+01
       H -6.03208e+01 -4.95159e+01 -3.34210e+01
       H -6.20907e+01 -5.16135e+01 -3.30651e+01
       O  1.15109e+01 -3.20764e+01 -4.59739e+01
       H  1.01051e+01 -3.28796e+01 -4.51017e+01
       H  1.29740e+01 -3.31621e+01 -4.58521e+01
       O -1.64919e+01  8.35963e+01 -4.35364e+01
       H -1.78691e+01  8.26679e+01 -4.28069e+01
       H -1.48179e+01  8.33680e+01 -4.26985e+01
       O  9.09478e+01  3.42669e+01  1.18052e+01
       H  9.25538e+01  3.33183e+01  1.15240e+01
       H  8.96689e+01  3.30768e+01  1.23282e+01
       O  1.18483e+02  6.39131e+01 -5.30737e-01
       H  1.18763e+02  6.21546e+01  1.09169e-01
       H  1.16726e+02  6.36442e+01 -9.25682e-01
       O -3.74542e+01  7.59647e+01  4.70576e+00
       H -3.73501e+01  7.47199e+01  3.38783e+00
       H -3.60030e+01  7.69553e+01  4.50743e+00
       O -5.39734e+00  1.91348e+01  7.78921e+01
       H -4.43404e+00  2.04645e+01  7.85832e+01
       H -4.33060e+00  1.79007e+01  7.70083e+01
       O  3.42935e+01  9.53133e+01 -3.39393e+01
       H  3.35315e+01  9.64106e+01 -3.52357e+01
       H  3.60924e+01  9.51870e+01 -3.45494e+01
       O  9.62299e+01 -4.94312e+01  4.98076e+01
       H  9.73740e+01 -5.04140e+01  5.07372e+01
       H  9.55401e+01 -5.05420e+01  4.84660e+01
       O -7.59878e+01  5.23629e+01  2.12321e+01
       H -7.62510e+01  5.07353e+01  2.21336e+01
       H -7.75511e+01  5.32653e+01  2.15605e+01
       O  4.01018e+01 -4.94902e+01  2.20793e+01
       H  4.08603e+01 -4.93591e+01  2.04854e+01
       H  3.84270e+01 -5.03731e+01  2.16245e+01
       O -3.14011e+01 -2.20110e+01  1.95299e+00
       H -3.27587e+01 -2.17532e+01  7.69865e-01
       H -3.02801e+01 -2.33230e+01  1.04507e+00
       O  3.17871e+01  9.79456e+00  2.10618e+01
       H  3.04325e+01  9.23790e+00  2.23272e+01
       H  3.21948e+01  1.15307e+01  2.13965e+01
       O  8.56669e+01 -2.20205e+01 -1.28766e+01
       H  8.54109e+01 -2.02359e+01 -1.33059e+01
       H  8.52341e+01 -2.28130e+01 -1.44276e+01
       O  2.94418e+00 -6.57027e+01  4.04800e+00
       H  1.21323e+00 -6.61160e+01  4.83762e+00
       H  4.40064e+00 -6.64319e+01  5.06372e+00
       O -1.04938e+02  5.28806e+01  6.89885e+01
       H -1.05055e+02  5.23738e+01  6.71658e+01
       H -1.06352e+02  5.40367e+01  6.91511e+01
       O -4.48556e+00 -5.63108e+01  1.85177e+01
       H -4.67305e+00 -5.53837e+01  1.69890e+01
       H -2.69156e+00 -5.67635e+01  1.84897e+01
       O -6.34078e+01  3.33946e+01  3.56944e+01
       H -6.51737e+01  3.36766e+01  3.54637e+01
       H -6.34717e+01  3.34922e+01  3.75318e+01
       O  2.91687e+01  4.10795e+01 -1.77647e+01
       H  2.93242e+01  3.93536e+01 -1.84511e+01
       H  3.06483e+01  4.16914e+01 -1.68743e+01
       O -7.92360e+01 -3.37586e+01 -5.83708e+01
       H -7.77262e+01 -3.28231e+01 -5.77447e+01
       H -7.91446e+01 -3.38401e+01 -6.02110e+01
       O  4.80138e+01 -5.41386e+01 -3.90831e+01
       H  4.66074e+01 -5.42789e+01 -4.03067e+01
       H  4.93522e+01 -5.31818e+01 -3.99423e+01
       O  1.92462e+01  1.63024e+01  4.64466e+01
       H  1.82816e+01  1.77638e+01  4.62340e+01
       H  1.91106e+01  1.55347e+01  4.49030e+01
       O -1.42101e+00  7.73632e+01  8.94556e+01
       H -3.01836e+00  7.69917e+01  9.02437e+01
       H -1.87811e+00  7.70509e+01  8.77537e+01
       O -3.16867e+01  1.31600e+02  1.00309e+02
       H -3.02383e+01  1.31596e+02  9.92260e+01
       H -3.19256e+01  1.33305e+02  1.00769e+02
       O  2.87772e+01  8.47231e-01  3.08308e+01
       H  3.01509e+01 -4.22881e-01  3.08834e+01
       H  2.73357e+01 -6.67286e-02  3.03348e+01
       O  3.25802e+01  2.05199e+01 -1.51913e+01
       H  3.40606e+01  2.13619e+01 -1.56596e+01
       H  3.26837e+01  1.98619e+01 -1.34503e+01
       O  1.81724e+02 -2.95926e+01 -8.61833e+00
       H  1.83025e+02 -2.97885e+01 -9.95360e+00
       H  1.81912e+02 -2.78217e+01 -8.11280e+00
       O -3.78579e+01  5.68727e+00 -3.66699e+01
       H -3.82089e+01  5.57113e+00 -3.85371e+01
       H -3.84699e+01  7.22434e+00 -3.62541e+01
       O  1.16561e+01 -2.75828e+01 -4.85680e+01
       H  1.19337e+01 -2.84921e+01 -5.01181e+01
       H  1.13602e+01 -2.88454e+01 -4.71924e+01
       O  2.78192e+01 -3.48457e+01  7.77311e+01
       H  2.93292e+01 -3.37961e+01  7.81970e+01
       H  2.64180e+01 -3.38995e+01  7.84215e+01
       O  2.14117e+01 -5.44933e+01  1.19537e+01
       H  2.24132e+01 -5.43749e+01  1.04242e+01
       H  2.10502e+01 -5.63553e+01  1.18639e+01
       O -3.48837e+01 -6.04700e+01 -7.72895e+01
       H -3.59266e+01 -5.99825e+01 -7.86999e+01
       H -3.54385e+01 -6.20446e+01 -7.67200e+01
       O -8.40699e+00  1.15122e+01  2.09768e+01
       H -9.34125e+00  1.05377e+01  1.96643e+01
       H -7.16084e+00  1.22935e+01  2.00507e+01
       O -3.85604e+01  4.57491e+01  4.26542e+01
       H -3.93935e+01  4.46939e+01  4.13596e+01
       H -3.75872e+01  4.46512e+01  4.37241e+01
       O -6.56039e+01  7.08033e+01 -8.70525e-01
       H -6.44883e+01  6.96280e+01 -1.69600e+00
       H -6.59733e+01  7.00840e+01  8.68428e-01
       O -2.14043e+01  1.21201e+01  7.49817e-01
       H -1.98944e+01  1.11978e+01  5.28903e-01
       H -2.23336e+01  1.15972e+01 -7.04016e-01
       O  1.75964e+00  7.97764e+00  3.30290e+01
       H  2.20465e+00  6.22301e+00  3.31411e+01
       H  3.00882e+00  8.78061e+00  3.20055e+01
       O  1.99817e+01  2.30064e+01  1.74498e+02
       H  1.82754e+01  2.35516e+01  1.75016e+02
       H  2.10352e+01  2.30729e+01  1.76120e+02
       O -6.71549e+00 -1.37328e+01  4.89684e+01
       H -5.03550e+00 -1.35413e+01  4.97669e+01
       H -6.88834e+00 -1.25794e+01  4.75877e+01
       O -8.50728e+01  1.38781e+01 -8.43586e+01
       H -8.45769e+01  1.53317e+01 -8.35185e+01
       H -8.58100e+01  1.28488e+01 -8.31128e+01
       O  3.22995e+00  5.01746e+01  1.28409e+02
       H  4.76359e+00  5.09489e+01  1.28862e+02
       H  3.89313e+00  4.91141e+01  1.27043e+02
       O  1.24040e+01 -5.33920e+01  4.01374e+01
       H  1.40905e+01 -5.37060e+01  3.96190e+01
       H  1.16509e+01 -5.25641e+01  3.86235e+01
       O  1.62746e+00  2.63475e+01  8.95374e+01
       H  2.95253e+00  2.61443e+01  9.08983e+01
       H  9.37488e-01  2.80180e+01  8.95990e+01
       O  8.58226e+01  5.25135e+01  4.91679e+00
       H  8.60893e+01  5.40234e+01  3.98756e+00
       H  8.57670e+01  5.11730e+01  3.73571e+00
       O  4.19829e+01 -2.00265e+01  6.34492e+01
       H  4.18105e+01 -1.94258e+01  6.52026e+01
       H  4.10053e+01 -1.87312e+01  6.26248e+01
       O  1.06657e+00  1.84186e+01  3.86994e+01
       H  1.62101e-01  1.74961e+01  3.73628e+01
       H  4.56018e-01  2.01404e+01  3.86400e+01
       O  1.61210e+02  1.52942e+01 -1.90154e+01
       H  1.61909e+02  1.35451e+01 -1.89273e+01
       H  1.60921e+02  1.54893e+01 -2.07955e+01
       O -5.16551e+01  9.18832e+01 -5.29340e+01
       H -5.20739e+01  9.34228e+01 -5.39008e+01
       H -4.99313e+01  9.19510e+01 -5.24074e+01
       O -5.35225e+01 -1.52131e+01  1.46303e+01
       H -5.49399e+01 -1.43817e+01  1.56214e+01
       H -5.46704e+01 -1.52976e+01  1.31213e+01
