                   288
# CELL(abcABC): 25.6156 29.5783 27.8867 90.0 90.0 90.0 Traj: positions{atomic_unit} cell{atomic_unit}
O  -1.6080178e+01  -1.1200807e+01  -5.3688499e+00
H  -1.4612614e+01  -1.0097155e+01  -4.9680241e+00
H  -1.7537861e+01  -1.0474853e+01  -4.6149259e+00
O  -1.1965289e+01  -8.2340500e+00  -3.3854423e+00
H  -1.2395058e+01  -8.2198037e+00  -1.5930746e+00
H  -1.2013365e+01  -6.4467289e+00  -3.9436554e+00
O  -1.6563496e+01  -1.1545482e+01   3.6545045e+00
H  -1.8125312e+01  -1.0604917e+01   3.3635841e+00
H  -1.6424949e+01  -1.1715566e+01   5.4927427e+00
O  -1.2422682e+01  -8.8574388e+00   1.9268260e+00
H  -1.3812941e+01  -9.6998849e+00   2.7631972e+00
H  -1.2537104e+01  -7.1511567e+00   2.6763235e+00
O  -1.2211898e+01  -3.7108314e+00  -5.5653134e+00
H  -1.0528242e+01  -3.0350660e+00  -5.1240950e+00
H  -1.2144389e+01  -3.7732409e+00  -7.4329038e+00
O  -1.6234251e+01  -9.5436509e-01  -3.2990602e+00
H  -1.4757883e+01  -1.8621571e+00  -4.0423674e+00
H  -1.6254224e+01  -1.2076039e+00  -1.4495339e+00
O  -1.1938277e+01  -3.7734787e+00   3.5070764e+00
H  -1.0323721e+01  -3.2806496e+00   2.6835669e+00
H  -1.1874475e+01  -3.8770718e+00   5.3458901e+00
O  -1.6258756e+01  -1.4341511e+00   2.0227494e+00
H  -1.4641247e+01  -2.2016370e+00   2.4583939e+00
H  -1.7598665e+01  -2.5428032e+00   2.5468578e+00
O  -7.9328755e+00  -1.0842086e+01  -5.0126714e+00
H  -9.4053183e+00  -9.9800273e+00  -4.4220605e+00
H  -8.1600375e+00  -1.0968307e+01  -6.8210173e+00
O  -3.1629386e+00  -9.3803966e+00  -3.7155691e+00
H  -4.9248372e+00  -9.8117061e+00  -4.2101565e+00
H  -3.4432172e+00  -9.2851044e+00  -1.9359333e+00
O  -8.2309674e+00  -1.2046258e+01   2.9831718e+00
H  -9.5304419e+00  -1.0928098e+01   2.1499801e+00
H  -8.4293190e+00  -1.1875465e+01   4.8237853e+00
O  -3.9138359e+00  -9.2341730e+00   1.8192200e+00
H  -5.3479049e+00  -1.0319775e+01   2.1659533e+00
H  -2.5054033e+00  -1.0247759e+01   2.4769404e+00
O  -3.3345104e+00  -4.2746380e+00  -5.5378631e+00
H  -3.2336019e+00  -6.0777027e+00  -5.2217117e+00
H  -3.3497688e+00  -4.2172096e+00  -7.3873910e+00
O  -7.5086698e+00  -1.9227845e+00  -3.9818628e+00
H  -6.0267797e+00  -2.7865797e+00  -4.6901769e+00
H  -7.5611330e+00  -2.1727419e+00  -2.1456472e+00
O  -3.6636279e+00  -4.2960519e+00   3.6776648e+00
H  -3.9085017e+00  -6.0431031e+00   3.1761493e+00
H  -2.0948307e+00  -3.6579740e+00   2.8896068e+00
O  -7.7177354e+00  -1.9583811e+00   1.2398340e+00
H  -6.0920110e+00  -2.5970960e+00   1.8628365e+00
H  -7.7387510e+00  -2.6455581e-01   1.9225210e+00
O   1.2993132e+00  -1.1384819e+01  -4.9878242e+00
H  -1.8262991e-01  -1.0440268e+01  -4.3485443e+00
H   9.2036540e-01  -1.1592687e+01  -6.7732446e+00
O   5.5012053e+00  -9.0485974e+00  -2.9982141e+00
H   4.2046444e+00  -1.0003655e+01  -3.8031804e+00
H   5.4517187e+00  -7.3593570e+00  -3.6898075e+00
O   3.9697785e-01  -1.1955971e+01   3.9129412e+00
H   9.9156182e-01  -1.3691186e+01   3.8020972e+00
H   4.1854728e-01  -1.1561130e+01   5.7579464e+00
O   4.6049318e+00  -9.2065773e+00   2.4746363e+00
H   4.8163768e+00  -9.5444000e+00   6.8434041e-01
H   2.9929351e+00  -1.0090741e+01   2.9822845e+00
O   5.4676147e+00  -4.0659858e+00  -5.4336857e+00
H   6.7745905e+00  -2.9561809e+00  -4.8610683e+00
H   3.8432955e+00  -3.2823403e+00  -4.8657884e+00
O   1.0167633e+00  -2.0730765e+00  -3.9728211e+00
H  -3.7951521e-01  -2.9416518e+00  -4.7181698e+00
H   8.4424241e-01  -2.2955927e+00  -2.1453903e+00
O   4.9220227e+00  -4.1731671e+00   3.2924584e+00
H   4.7634838e+00  -5.9874949e+00   3.3331715e+00
H   4.9596047e+00  -3.8074037e+00   5.0503999e+00
O   4.7673770e-01  -2.0033319e+00   1.3932715e+00
H   2.0628333e+00  -2.8227568e+00   2.1212278e+00
H   5.9258679e-01  -2.7121802e-01   1.9456578e+00
O  -1.5488181e+01   3.5448261e+00  -5.1614898e+00
H  -1.5853903e+01   1.8717852e+00  -4.2603365e+00
H  -1.5087579e+01   3.0295685e+00  -6.8771089e+00
O  -1.1608364e+01   6.5497127e+00  -3.4391163e+00
H  -1.3066445e+01   5.5500848e+00  -4.0733495e+00
H  -1.0233716e+01   5.4467337e+00  -3.9046360e+00
O  -1.6153909e+01   3.5693947e+00   3.5630447e+00
H  -1.5746559e+01   1.8279134e+00   3.0252083e+00
H  -1.7660611e+01   4.1534431e+00   2.5996559e+00
O  -1.1673219e+01   5.8048729e+00   1.6501610e+00
H  -1.1967932e+01   5.9680704e+00  -1.6642577e-01
H  -1.3248440e+01   5.4030155e+00   2.2764759e+00
O  -1.1913376e+01   1.1087418e+01  -5.8715245e+00
H  -1.1632328e+01   9.5353651e+00  -4.8242824e+00
H  -1.3440347e+01   1.1695294e+01  -5.0890864e+00
O  -1.6390038e+01   1.3311419e+01  -3.7009432e+00
H  -1.6444662e+01   1.5162433e+01  -4.1238022e+00
H  -1.5833904e+01   1.3173755e+01  -1.9111305e+00
O  -1.2007003e+01   1.0945970e+01   3.5523874e+00
H  -1.1865319e+01   9.2583205e+00   2.7369941e+00
H  -1.0501552e+01   1.1851403e+01   2.8841015e+00
O  -1.6524458e+01   1.3033329e+01   1.7025445e+00
H  -1.6384715e+01   1.4798995e+01   2.1825831e+00
H  -1.4991255e+01   1.2197889e+01   2.0879954e+00
O  -7.4877537e+00   3.2224870e+00  -5.0872095e+00
H  -7.4689829e+00   1.5114965e+00  -4.4701308e+00
H  -7.5227706e+00   2.9250882e+00  -6.9329873e+00
O  -2.8320180e+00   5.3677900e+00  -3.9136509e+00
H  -4.4567346e+00   4.6082045e+00  -4.3401096e+00
H  -2.9701749e+00   7.1136359e+00  -4.3979127e+00
O  -7.5695342e+00   3.0963107e+00   3.2707478e+00
H  -8.8739815e+00   4.2723747e+00   2.6663985e+00
H  -5.9783791e+00   3.7690389e+00   2.6171119e+00
O  -3.4254290e+00   5.1459524e+00   1.2518814e+00
H  -3.2009708e+00   5.3816336e+00  -5.3356583e-01
H  -3.3653809e+00   6.8398855e+00   1.9851005e+00
O  -3.1447760e+00   1.0578172e+01  -4.9510973e+00
H  -4.5879344e+00   1.1586963e+01  -4.4254533e+00
H  -1.6760801e+00   1.1555606e+01  -4.3642203e+00
O  -7.5667360e+00   1.3541198e+01  -3.8875980e+00
H  -7.3609477e+00   1.5223989e+01  -4.5856821e+00
H  -9.1503488e+00   1.3048296e+01  -4.6593677e+00
O  -3.6957484e+00   1.0001468e+01   2.9581968e+00
H  -4.9038222e+00   1.1218504e+01   2.2589647e+00
H  -3.8548044e+00   1.0039102e+01   4.7512417e+00
O  -7.5030905e+00   1.2629897e+01   1.1322247e+00
H  -7.3985568e+00   1.4313484e+01   1.7603727e+00
H  -7.4382587e+00   1.2901129e+01  -7.3874556e-01
O   1.6263998e+00   2.9978607e+00  -5.0406988e+00
H   1.5314078e+00   1.1968257e+00  -4.6020029e+00
H  -3.2758535e-02   3.7890575e+00  -4.8034496e+00
O   5.4926960e+00   6.3284474e+00  -4.1344840e+00
H   7.0075982e+00   5.5044523e+00  -4.7638391e+00
H   3.9605691e+00   5.2698064e+00  -4.4411603e+00
O   1.1317022e+00   3.1134449e+00   3.4107201e+00
H  -1.8953071e-01   4.0129997e+00   2.4518220e+00
H   2.8214676e+00   3.6117358e+00   2.7261340e+00
O   5.3828957e+00   5.6133762e+00   1.3352767e+00
H   5.4742306e+00   5.8999373e+00  -4.8283910e-01
H   5.6964535e+00   7.2098262e+00   2.1657840e+00
O   5.0980952e+00   1.1270135e+01  -5.4644679e+00
H   6.4891787e+00   1.2181050e+01  -4.7679828e+00
H   5.2466227e+00   9.4635165e+00  -4.9662159e+00
O   9.1181901e-01   1.3344111e+01  -3.0738686e+00
H   9.9374745e-01   1.5064700e+01  -3.8017475e+00
H   2.2925203e+00   1.2469112e+01  -3.8270935e+00
O   5.3404534e+00   1.0188502e+01   3.7623562e+00
H   6.7089724e+00   1.1085946e+01   2.9225768e+00
H   3.8078409e+00   1.1089366e+01   3.2449973e+00
O   8.3879013e-01   1.2570095e+01   2.2487704e+00
H  -6.3776831e-01   1.1525579e+01   2.5203331e+00
H   7.3403257e-01   1.2909892e+01   4.3166444e-01
O  -1.6097456e+01  -1.1699207e+01   8.6496343e+00
H  -1.7616050e+01  -1.0984019e+01   9.3961025e+00
H  -1.6338913e+01  -1.3470214e+01   8.9945337e+00
O  -1.2056676e+01  -9.0293200e+00   1.0644197e+01
H  -1.3538584e+01  -1.0029764e+01   1.0354312e+01
H  -1.0882281e+01  -9.9129626e+00   9.5053262e+00
O  -1.5443882e+01  -1.1844804e+01   1.7356469e+01
H  -1.5607751e+01  -1.1584258e+01   1.9218021e+01
H  -1.6904849e+01  -1.1036197e+01   1.6693629e+01
O  -1.1037131e+01  -9.2179633e+00   1.5541875e+01
H  -1.1449796e+01  -9.0511817e+00   1.3725777e+01
H  -1.2600901e+01  -9.8334908e+00   1.6185719e+01
O  -1.2117661e+01  -4.3638091e+00   8.4549141e+00
H  -1.2159358e+01  -6.0462875e+00   9.3370378e+00
H  -1.0517652e+01  -3.6214381e+00   8.9250932e+00
O  -1.6281641e+01  -1.8797398e+00   1.0179989e+01
H  -1.4872188e+01  -2.9583398e+00   9.6575514e+00
H  -1.5927027e+01  -1.6137456e-01   9.7324512e+00
O  -1.1741505e+01  -4.2049674e+00   1.6837871e+01
H  -1.1278435e+01  -5.8968630e+00   1.6263768e+01
H  -1.0302657e+01  -3.1785081e+00   1.6179716e+01
O  -1.6122253e+01  -1.7810187e+00   1.5357184e+01
H  -1.5970167e+01  -1.8493157e+00   1.3495314e+01
H  -1.4604058e+01  -2.6780302e+00   1.5870805e+01
O  -7.9481854e+00  -1.1345159e+01   8.0533462e+00
H  -6.3847296e+00  -1.0562010e+01   8.5328575e+00
H  -7.9755069e+00  -1.3030330e+01   8.7465426e+00
O  -3.5048844e+00  -9.0749431e+00   1.0258404e+01
H  -3.6600497e+00  -9.2211564e+00   1.2119314e+01
H  -1.8392845e+00  -9.8686127e+00   1.0009988e+01
O  -7.2186236e+00  -1.1554176e+01   1.7716412e+01
H  -8.6647538e+00  -1.0719205e+01   1.6899571e+01
H  -7.2362864e+00  -1.3243364e+01   1.7159461e+01
O  -3.1979115e+00  -9.0652085e+00   1.5509100e+01
H  -4.4879770e+00  -1.0020961e+01   1.6391711e+01
H  -3.2969404e+00  -7.3710896e+00   1.6291409e+01
O  -3.0555335e+00  -4.2152788e+00   8.8235155e+00
H  -3.2229657e+00  -4.4114662e+00   6.9641880e+00
H  -3.1776161e+00  -6.0448403e+00   9.4994230e+00
O  -7.5636982e+00  -1.9245102e+00   1.0026303e+01
H  -5.8467565e+00  -2.6384911e+00   9.7122217e+00
H  -7.3913317e+00  -1.2797370e-01   9.5994250e+00
O  -3.4612756e+00  -3.9462816e+00   1.7135567e+01
H  -5.1058870e+00  -3.1994507e+00   1.6653012e+01
H  -2.0861199e+00  -3.0023804e+00   1.6372311e+01
O  -7.6039455e+00  -1.4841889e+00   1.5131237e+01
H  -7.4449672e+00  -1.4336853e+00   1.3327621e+01
H  -7.4333794e+00   2.0737504e-01   1.5750585e+01
O   9.7083303e-01  -1.1354900e+01   8.9858387e+00
H   2.6408174e+00  -1.0704423e+01   9.5420005e+00
H   1.0157471e+00  -1.3139122e+01   9.5147542e+00
O   5.6411550e+00  -9.0354852e+00   1.0713541e+01
H   5.4170087e+00  -8.8843848e+00   1.2554418e+01
H   5.2888524e+00  -7.3276580e+00   1.0009594e+01
O   1.3286927e+00  -1.1434581e+01   1.7564871e+01
H  -5.5279849e-02  -1.0439930e+01   1.6857008e+01
H   1.0686522e+00  -1.3157119e+01   1.6880749e+01
O   5.6269519e+00  -8.9922638e+00   1.6092738e+01
H   4.1597866e+00  -9.9449840e+00   1.6625177e+01
H   5.2578461e+00  -7.2924078e+00   1.6702364e+01
O   4.8272425e+00  -4.3119085e+00   8.5475537e+00
H   6.3101430e+00  -3.4397415e+00   9.0635467e+00
H   3.3488625e+00  -3.3470889e+00   9.0913262e+00
O   9.7650520e-01  -1.3832525e+00   1.0409822e+01
H  -5.4741611e-01  -2.2055781e+00   9.7372032e+00
H   7.8398592e-01  -1.4560229e+00   1.2260293e+01
O   5.0014019e+00  -3.9113670e+00   1.7152745e+01
H   5.3256698e+00  -3.8517740e+00   1.8944921e+01
H   6.4992836e+00  -3.3135593e+00   1.6332697e+01
O   6.6598348e-01  -1.0844258e+00   1.5614034e+01
H   2.2302241e+00  -2.0438102e+00   1.6071951e+01
H   1.0836145e+00   5.6382526e-01   1.6370633e+01
O  -1.5732613e+01   2.9753226e+00   8.5849917e+00
H  -1.6174063e+01   2.9891721e+00   6.8323307e+00
H  -1.7177362e+01   3.9625689e+00   9.3997008e+00
O  -1.1597617e+01   5.6231675e+00   1.0016841e+01
H  -1.3115212e+01   4.5147985e+00   9.7127713e+00
H  -1.0182362e+01   4.5596875e+00   9.5218408e+00
O  -1.5597563e+01   3.1232038e+00   1.7587149e+01
H  -1.5711838e+01   1.3525315e+00   1.7073937e+01
H  -1.7190474e+01   4.0555774e+00   1.7141129e+01
O  -1.1297962e+01   5.4745453e+00   1.5400089e+01
H  -1.1312120e+01   5.3889846e+00   1.3548789e+01
H  -1.2806358e+01   4.6453238e+00   1.6026288e+01
O  -1.1808162e+01   1.0511198e+01   8.7245690e+00
H  -1.1719141e+01   1.0744485e+01   6.8778155e+00
H  -1.1923310e+01   8.6821257e+00   9.1216710e+00
O  -1.6055404e+01   1.2912762e+01   1.0503814e+01
H  -1.4719928e+01   1.1950571e+01   9.5060046e+00
H  -1.5556615e+01   1.2557685e+01   1.2250247e+01
O  -1.1229055e+01   1.0368204e+01   1.6825853e+01
H  -1.1491425e+01   1.0439412e+01   1.8643614e+01
H  -1.1228101e+01   8.5492916e+00   1.6411037e+01
O  -1.5519441e+01   1.2891751e+01   1.5568044e+01
H  -1.5305310e+01   1.4639756e+01   1.6172545e+01
H  -1.3939955e+01   1.1884310e+01   1.5978576e+01
O  -7.2864110e+00   3.0607042e+00   8.7723548e+00
H  -7.2219247e+00   3.1194304e+00   6.8741736e+00
H  -5.8515042e+00   4.0705209e+00   9.2560159e+00
O  -3.0849854e+00   5.9070197e+00   1.0348647e+01
H  -2.8274342e+00   5.6951614e+00   1.2107561e+01
H  -1.4570743e+00   5.1876727e+00   9.7193619e+00
O  -7.1518017e+00   3.1873075e+00   1.7320107e+01
H  -8.6065181e+00   4.0980601e+00   1.6672259e+01
H  -5.7365305e+00   4.1515919e+00   1.6692769e+01
O  -3.0324515e+00   5.6440283e+00   1.5874752e+01
H  -3.0843185e+00   7.3556488e+00   1.6565437e+01
H  -1.4035547e+00   5.0021185e+00   1.6425701e+01
O  -3.5653534e+00   1.0582097e+01   8.2602060e+00
H  -3.3529693e+00   8.9069080e+00   9.0857536e+00
H  -5.2329233e+00   1.1106765e+01   8.8339665e+00
O  -7.8114860e+00   1.3380301e+01   9.7534176e+00
H  -9.3993844e+00   1.2348197e+01   9.5976678e+00
H  -7.3130327e+00   1.3628692e+01   1.1577624e+01
O  -3.1045724e+00   1.1067216e+01   1.7639760e+01
H  -3.0653898e+00   1.1005410e+01   1.9503837e+01
H  -1.5118491e+00   1.1891464e+01   1.7102075e+01
O  -7.1091699e+00   1.3189238e+01   1.5271381e+01
H  -8.4808488e+00   1.1956257e+01   1.5591796e+01
H  -5.6783193e+00   1.2374372e+01   1.6214021e+01
O   1.0540297e+00   3.7263106e+00   8.6185561e+00
H   1.0542487e+00   3.6981411e+00   6.7507713e+00
H   1.0795597e+00   1.9382611e+00   9.1853798e+00
O   5.6159888e+00   5.5921139e+00   1.0301510e+01
H   4.0242601e+00   4.6842929e+00   9.6591198e+00
H   5.2988472e+00   7.3727788e+00   9.8320890e+00
O   1.2146515e+00   3.7173767e+00   1.7674402e+01
H   1.4351207e+00   3.8389396e+00   1.9550858e+01
H   2.6892243e+00   4.4642656e+00   1.6943755e+01
O   6.0460271e+00   5.6200443e+00   1.5550409e+01
H   6.0405095e+00   5.5709659e+00   1.3692957e+01
H   5.6709604e+00   7.3786647e+00   1.5895627e+01
O   5.1104087e+00   1.0581369e+01   8.8071002e+00
H   5.2507659e+00   1.0466888e+01   6.9340419e+00
H   6.6995805e+00   1.1303679e+01   9.3968431e+00
O   8.1558594e-01   1.3199877e+01   1.0321860e+01
H  -6.7201067e-01   1.2725165e+01   9.3046667e+00
H   2.2918384e+00   1.2244665e+01   9.7623477e+00
O   5.5022190e+00   1.0573107e+01   1.6890131e+01
H   5.4105541e+00   1.0668515e+01   1.8705391e+01
H   7.0911089e+00   1.1450883e+01   1.6470230e+01
O   1.1807634e+00   1.3292272e+01   1.5426075e+01
H   9.9754873e-01   1.3197102e+01   1.3579983e+01
H   2.8263702e+00   1.2419463e+01   1.5795735e+01
